#P B3LYP/6-31+G*
scf(tight,maxcycle=100)
force
 
Gaussian input prepared by ASE
 
0 1
O                 0.2931450000       -0.2064410000       -0.1994920000
C                 0.1531130000       -1.3926610000       -0.1202560000
O                 0.5165440000       -2.1531150000        0.9583380000
O                -0.3952680000       -2.1769570000       -1.0917140000
C                -0.2333900000       -3.5591980000       -0.7331260000
C                 0.0253720000       -3.5053350000        0.7795340000
C                 1.0359470000       -4.5029420000        1.3104700000
H                -0.9171980000       -3.5734700000        1.3373300000
H                -1.1433900000       -4.0969310000       -1.0059000000
H                 0.6204850000       -3.9682350000       -1.2865320000
H                 1.2066020000       -4.3464950000        2.3799500000
H                 1.9927110000       -4.4036410000        0.7865080000
H                 0.6625790000       -5.5246400000        1.1697050000
 
 
