       6
 i =        1, E =       -13.7254912858
  C         5.0000000730        5.0000000017        5.6672201701
  C         5.0000000730        5.0000000017        4.3327798311
  H         4.9999999671        5.9271631685        6.2392576995
  H         4.9999999671        4.0728368289        6.2392576940
  H         4.9999999671        5.9271631550        3.7607422993
  H         4.9999999671        4.0728368424        3.7607423048
       6
 i =        2, E =       -13.7254999790
  C         5.0000000858        5.0000000005        5.6670263919
  C         5.0000000858        5.0000000004        4.3329736174
  H         4.9999999627        5.9284817723        6.2403944426
  H         4.9999999627        4.0715182261        6.2403944338
  H         4.9999999627        5.9284817561        3.7596055513
  H         4.9999999627        4.0715182422        3.7596055600
       6
 i =        3, E =       -13.7255000089
  C         5.0000000828        5.0000000006        5.6670118421
  C         5.0000000828        5.0000000005        4.3329881631
  H         4.9999999652        5.9284301048        6.2405547905
  H         4.9999999651        4.0715698935        6.2405547810
  H         4.9999999652        5.9284300935        3.7594452037
  H         4.9999999651        4.0715699048        3.7594452132
       6
 i =        4, E =       -13.7255008478
  C         5.0000000828        5.0000000006        5.6670118421
  C         5.0000000828        5.0000000005        4.3329881631
  H         4.9999999652        5.9284301048        6.2405547905
  H         4.9999999651        4.0715698935        6.2405547810
  H         4.9999999652        5.9284300935        3.7594452037
  H         4.9999999651        4.0715699048        3.7594452132
