       8
 i =        1, E =       -66.2354047701
  O         7.5000000004        9.6208779910        7.5000000027
  C         7.5000000000        8.4236531697        7.4999999963
  O         7.5000000001        7.3477514774        8.5778913296
  O         7.4999999999        7.3477514771        6.4221086738
  C         7.5000000002        6.1291256807        6.7690194017
  C         7.5000000002        6.1291256648        8.2309805702
  H         7.4999999999        5.3901502834        6.0213900632
  H         7.5000000000        5.3901502958        8.9786099677
       8
 i =        2, E =       -66.2924876994
  O         7.5000000016        9.4488950153        7.4999999907
  C         7.4999999995        8.2639711551        7.4999999436
  O         7.5000000016        7.4587000900        8.6962469714
  O         7.4999999989        7.4587001590        6.3037529577
  C         7.5000000003        6.2069666232        6.8164552742
  C         7.5000000006        6.2069664011        8.1835447004
  H         7.4999999998        5.3709952698        6.1091513271
  H         7.4999999999        5.3709952101        8.8908489557
       8
 i =        3, E =       -66.3025620746
  O         7.5000000008        9.4868780729        7.5000000186
  C         7.5000000004        8.2972715156        7.4999999282
  O         7.5000000017        7.4630109540        8.6311647449
  O         7.4999999983        7.4630108346        6.3688353525
  C         7.4999999998        6.1818743744        6.8459650249
  C         7.5000000012        6.1818743659        8.1540349939
  H         7.4999999996        5.3694852604        6.1183970757
  H         7.5000000000        5.3694852594        8.8816031122
       8
 i =        4, E =       -66.3044850944
  O         7.5000000012        9.4906396480        7.4999998513
  C         7.5000000002        8.2976114488        7.5000000342
  O         7.5000000016        7.4718093049        8.6125701689
  O         7.4999999993        7.4718091795        6.3874299324
  C         7.4999999982        6.1692624780        6.8302127602
  C         7.5000000017        6.1692624741        8.1697873576
  H         7.4999999994        5.3780181870        6.0901989641
  H         7.5000000006        5.3780181962        8.9098013197
       8
 i =        5, E =       -66.3048992304
  O         7.5000000008        9.4856672526        7.5000001518
  C         7.5000000017        8.2906325815        7.4999999820
  O         7.5000000011        7.4811102083        8.6194588150
  O         7.4999999978        7.4811100031        6.3805412452
  C         7.5000000002        6.1725602053        6.8309816328
  C         7.5000000007        6.1725602567        8.1690185274
  H         7.4999999984        5.3810070307        6.0914275370
  H         7.5000000008        5.3810071474        8.9085727746
       8
 i =        6, E =       -66.3050016461
  O         7.5000000029        9.4912790574        7.4999995605
  C         7.4999999968        8.2949123920        7.4999999189
  O         7.5000000025        7.4874914773        8.6223105663
  O         7.5000000039        7.4874914953        6.3776894720
  C         7.4999999983        6.1750238883        6.8315837949
  C         7.5000000003        6.1750236405        8.1684164449
  H         7.4999999985        5.3846966846        6.0913796487
  H         7.5000000018        5.3846966192        8.9086208945
       8
 i =        7, E =       -66.3050552885
  O         7.4999999941        9.4993537379        7.5000010485
  C         7.5000000130        8.3028202399        7.4999998448
  O         7.4999999914        7.4926702332        8.6227597460
  O         7.4999999858        7.4926694783        6.3772404730
  C         7.5000000018        6.1772452542        6.8322252833
  C         7.4999999998        6.1772459060        8.1677748543
  H         7.4999999975        5.3894718968        6.0901075749
  H         7.5000000021        5.3894724501        8.9098924613
       8
 i =        8, E =       -66.3050791806
  O         7.5000000187        9.5058619865        7.4999975995
  C         7.4999999539        8.3094323181        7.5000004711
  O         7.5000000409        7.4949534164        8.6227249776
  O         7.5000000608        7.4949553343        6.3772747070
  C         7.4999999916        6.1793659578        6.8322218278
  C         7.4999999994        6.1793639519        8.1677782280
  H         7.4999999984        5.3933082083        6.0886415399
  H         7.5000000032        5.3933071818        8.9113595523
       8
 i =        9, E =       -66.3050905885
  O         7.4999999280        9.5122654983        7.5000047085
  C         7.5000001919        8.3156837542        7.4999988644
  O         7.4999997894        7.4983019110        8.6220153421
  O         7.4999997071        7.4982961397        6.3779860851
  C         7.5000000354        6.1829287007        6.8322801278
  C         7.5000000086        6.1829345950        8.1677201670
  H         7.4999999923        5.3978265383        6.0876272082
  H         7.4999999962        5.3978298535        8.9123702972
       8
 i =       10, E =       -66.3050992213
  O         7.5000002759        9.5166102646        7.4999920378
  C         7.4999992201        8.3194138816        7.5000020916
  O         7.5000009771        7.5000601692        8.6219678522
  O         7.5000012824        7.5000742352        6.3780265463
  C         7.4999998511        6.1862818801        6.8321326493
  C         7.4999999492        6.1862671865        8.1678658244
  H         7.5000000220        5.4011568794        6.0873353581
  H         7.5000000296        5.4011498421        8.9126712706
       8
 i =       11, E =       -66.3051024570
  O         7.4999986749        9.5191277414        7.5000183758
  C         7.5000037890        8.3212146953        7.4999971408
  O         7.4999949685        7.5016237423        8.6215735669
  O         7.4999936622        7.5015840805        6.3784486047
  C         7.5000006982        6.1887235044        6.8321980608
  C         7.5000002938        6.1887668629        8.1678081383
  H         7.4999998746        5.4035144002        6.0874547596
  H         7.4999998618        5.4035331936        8.9125248863
       8
 i =       12, E =       -66.3051026611
  O         7.5000050923        9.5198857082        7.4999646683
  C         7.4999854824        8.3216540310        7.5000013825
  O         7.5000194639        7.5019300595        8.6215984198
  O         7.5000236586        7.5020181390        6.3783409988
  C         7.4999974346        6.1894163016        6.8321721899
  C         7.4999987583        6.1893169664        8.1678112383
  H         7.5000004737        5.4041804866        6.0875732997
  H         7.5000005361        5.4041406279        8.9124747796
       8
 i =       13, E =       -66.3051028431
  O         7.5000050923        9.5198857082        7.4999646683
  C         7.4999854824        8.3216540310        7.5000013825
  O         7.5000194639        7.5019300595        8.6215984198
  O         7.5000236586        7.5020181390        6.3783409988
  C         7.4999974346        6.1894163016        6.8321721899
  C         7.4999987583        6.1893169664        8.1678112383
  H         7.5000004737        5.4041804866        6.0875732997
  H         7.5000005361        5.4041406279        8.9124747796
